LAMMPS (24 Apr 2013)
# SPC water box

# Define units and forcefield styles
units		real
atom_style	full
boundary        p p p
pair_style	lj/cut/coul/long 9.8 9.8
pair_modify     mix arithmetic
kspace_style	pppm 1.0e-4
bond_style	harmonic
angle_style	harmonic
dihedral_style	none
improper_style	none

# Read the data file
read_data	spc.data
  orthogonal box = (0 0 0) to (20.75 20.75 20.75)
  768 atoms
  512 bonds
  256 angles

# Non-bonded parameters
pair_coeff	1   1    0.15535    3.166
pair_coeff	*   2    0.00000    0.000

# Bond parameters
bond_coeff	1 1000.00 1.000

# Angle parameters
angle_coeff	1 100.0 109.47

# 1-4 Interactions
special_bonds   lj/coul 0.0 0.0 0.5

# Write initial structure out
dump            icrd all custom 5 system.lammpstrj id mol type x y z ix iy iz
dump_modify     icrd sort id
run             1
PPPM initialization ...
  G vector (1/distance) = 0.277067
  grid = 12 12 12
  stencil order = 5
  estimated absolute RMS force accuracy = 0.0185779
  estimated relative force accuracy = 5.59469e-05
  3d grid and FFT values/proc = 6859 1728
Step Temp E_pair E_mol TotEng Press
0            0    1713.6448    9.5570793    1723.2019    135635.51
Loop time of 0.00749898 on 1 procs (1 MPI x 1 OpenMP) for 1 steps with 768 atoms

Pair  time (%) = 0.00671601 (89.559)
Bond  time (%) = 4.81606e-05 (0.642228)
Kspce time (%) = 0.000571966 (7.62725)
Neigh time (%) = 0 (0)
Comm  time (%) = 4.19617e-05 (0.559565)
Outpt time (%) = 0.000110149 (1.46886)
Other time (%) = 1.07288e-05 (0.143071)

FFT Gflps 3d (1d only) = 3.31988 9.07268

# Reset the timestep
undump          icrd
reset_timestep  0

# Timestep and Neighbour searching
timestep	2.0
neighbor        2.0 bin
neigh_modify	every 1 delay 10 check yes

# Computes
compute rdf all rdf 100 1 1 1 2 2 2
compute msd all msd com yes

# Fixes
fix		1 all shake 0.0001 20 0 b 1 a 1
fix		2 all npt temp 300.0 300.0 100.0 iso 1.0 1.0 100.0
fix		rdf all ave/time 1 250000 250000 c_rdf file rdf.xvg mode vector
fix		msd all ave/time 1 50000 50000 c_msd file msd.xvg mode vector

# Initial velocity
velocity	all create 300 432567 dist uniform

# Write out thermodynamic information
thermo_style    custom step temp press vol pe ke evdwl ecoul epair
thermo	        250

# Write out trajectory
dump            cxtc all xtc 250 traj-0.xtc

# Write out velocity
#dump 		1 all custom 1 vel_npt.txt vx vy vz

# Checkpoint files
restart         5000 state_cpt-*.data

# Final run command
run             250000
PPPM initialization ...
  G vector (1/distance) = 0.277067
  grid = 12 12 12
  stencil order = 5
  estimated absolute RMS force accuracy = 0.0185779
  estimated relative force accuracy = 5.59469e-05
  3d grid and FFT values/proc = 6859 1728
Step Temp Press Volume PotEng KinEng E_vdwl E_coul E_pair
0          300    121853.68    8934.1719    1713.6448    456.95818    4043.2366    10998.442    1713.6448
Averages over the last 501 of 1001 rows, steps 125000 to 250000:
Temp Press Volume PotEng KinEng E_vdwl E_coul E_pair
299.795 -24.9764 7931.48 -2520.44 456.645 431.355 10440.9 -2520.44
Loop time of 3498.05 on 1 procs (1 MPI x 1 OpenMP) for 250000 steps with 768 atoms

Pair  time (%) = 1365.43 (39.034)
Bond  time (%) = 0.155503 (0.00444542)
Kspce time (%) = 142.214 (4.06552)
Neigh time (%) = 193.717 (5.53785)
Comm  time (%) = 14.4242 (0.412351)
Outpt time (%) = 0.237864 (0.00679991)
Other time (%) = 1781.87 (50.939)

FFT Gflps 3d (1d only) = 3.33374 8.95069

write_restart   confout-0.data
PPPM initialization ...
  G vector (1/distance) = 0.280509
  grid = 12 12 12
  stencil order = 5
  estimated absolute RMS force accuracy = 0.0164267
  estimated relative force accuracy = 4.94684e-05
  3d grid and FFT values/proc = 6859 1728
